53
nanotube
 C    3.012738    2.705420    0.000000
 C    3.012738    2.705420   15.455200
 C    2.372640    3.908250    0.404926
 C    2.831861    3.406124    2.781936
 C    2.066493    4.065164    1.783530
 C    0.716009    3.883901    2.188456
 C    0.151512    3.045762    1.188505
 C    0.491397    1.726599    1.593431
 C    1.390783    1.265054    0.595025
 C    2.660356    1.758523    0.998406
 C    3.011800    2.750330    5.160491
 C    2.630990    3.685864    4.160540
 C    1.346110    4.139834    4.565466
 C    0.462032    3.650694    3.567060
 C    0.163383    2.321791    3.971987
 C    0.753184    1.501508    2.972035
 C    2.108041    1.361367    3.376961
 C    2.852791    2.044215    2.377010
 C    2.959942    3.091213    6.539095
 C    2.024007    4.080315    6.944021
 C    1.014034    4.048390    5.944070
 C    0.141827    3.001934    6.348996
 C    0.293339    2.002552    5.349045
 C    1.435143    1.260726    5.753971
 C    2.409503    1.528562    4.755565
 C    2.599439    3.718870    9.321032
 C    1.686620    4.150655    8.322625
 C    0.432979    3.616606    8.726006
 C    0.112150    2.658346    7.727600
 C    0.790359    1.477159    8.132526
 C    1.780027    1.271547    7.132575
 C    2.872784    2.084255    7.537501
 C    2.947759    3.133959   11.698041
 C    2.331716    3.934763   10.699636
 C    0.973110    4.030535   11.104562
 C    0.250541    3.324420   10.104610
 C    0.315831    1.963594   10.509536
 C    1.102129    1.329985    9.511130
 C    2.445428    1.555075    9.916057
 C    2.982123    2.411070    8.916105
 C    2.807181    3.448869   13.076645
 C    1.641636    4.153902   13.481571
 C    0.676960    3.854141   12.483165
 C    0.114336    2.613436   12.888091
 C    0.525761    1.690887   11.888141
 C    1.824075    1.278582   12.293067
 C    2.691908    1.795858   11.294660
 C    1.297689    4.131717   14.860175
 C    0.231485    3.283839   15.265101
 C    0.176816    2.274717   14.266695
 C    1.144928    1.316457   14.670075
 C    2.153027    1.380846   13.671670
 C    2.990870    2.455439   14.076596
