55
D:\Adam\Documents\451_tube.pdb
C         -1.15700        0.24700      -10.31500
C         -0.09600        1.23600      -10.30400
C          1.16600        0.51900      -10.30900
C          0.88000       -0.90300      -10.34700
C         -0.56900       -1.07900      -10.32000
C         -1.90500        0.31400       -9.08200
C         -1.45400        1.49400       -8.39900
C         -0.26800        1.95500       -9.06500
C          0.99400        1.86200       -8.38100
C          1.78600        0.87600       -9.05600
C          2.06500       -0.36500       -8.38500
C          1.37900       -1.40600       -9.09100
C          0.31900       -2.09100       -8.40700
C         -0.89800       -1.81200       -9.11900
C         -1.84400       -0.96300       -8.42800
C         -1.54000        1.35800       -6.98100
C          0.81300        1.88400       -6.96500
C          2.04200       -0.19500       -6.96800
C          0.43000       -1.99000       -6.99000
C         -1.79400       -1.03600       -7.01300
C         -2.03900        0.20100       -6.32500
C         -0.44100        1.99800       -6.31200
C          1.77100        1.03300       -6.31200
C          1.52400       -1.37300       -6.32700
C         -0.84300       -1.84900       -6.34500
C         -2.03500        0.10300       -4.90700
C         -0.53700        1.95600       -4.89300
C          1.69600        1.10600       -4.89100
C          1.55000       -1.28700       -4.90400
C         -0.78900       -1.91800       -4.92700
C         -1.72700       -1.10100       -4.20900
C         -1.58100        1.27000       -4.20500
C          0.72200        1.88900       -4.20600
C          2.01600       -0.12400       -4.22500
C          0.46200       -1.95800       -4.25700
C         -1.68000       -1.13900       -2.79500
C         -1.60100        1.22100       -2.78800
C          0.67300        1.88800       -2.78700
C          1.99500       -0.09100       -2.80300
C          0.50700       -1.99400       -2.83800
C         -0.70700       -1.90400       -2.07800
C         -2.01700        0.05400       -2.07300
C         -0.57000        1.92400       -2.08000
C          1.65900        1.10700       -2.09800
C          1.52700       -1.27800       -2.15300
C         -0.67500       -1.90300       -0.66700
C         -2.00800        0.03300       -0.65800
C         -0.58000        1.91100       -0.66300
C          1.64300        1.08800       -0.67700
C          1.57700       -1.31400       -0.73500
C          0.55200       -1.91500        0.07900
C         -1.63800       -1.14100        0.07800
C         -1.58900        1.19900        0.06500
C          0.67100        1.85900        0.03800
C          1.94900       -0.14400       -0.01600
