241
D:\Adam\Documents\Vesta Files\tubetypes_l10_m5_t15-choice.pdb
 C    1.741000    0.667000  -34.377998
 C    1.853000   -0.488000  -35.294998
 C    0.551000   -1.048000  -35.308998
 C    3.256000   -0.224000  -35.576000
 C    2.913000   -1.363000  -36.492001
 C    1.823000   -2.217000  -36.255001
 C    0.564000   -2.499000  -35.502998
 C    4.220000   -0.988000  -37.096001
 C    4.569000   -2.417000  -36.855999
 C    3.484000   -3.286000  -36.421001
 C    2.209000   -3.519000  -35.682999
 C    5.445000   -2.199000  -35.750000
 C    3.919000   -1.961000  -35.162998
 C    4.046000   -3.521000  -35.063000
 C    1.760000    2.715000  -32.863998
 C    2.115000    1.996000  -34.051998
 C    3.526000    1.584000  -33.769001
 C    3.588000    1.048000  -35.094002
 C    4.732000    0.077000  -34.640999
 C    4.523000   -0.071000  -36.061001
 C    5.630000   -0.931000  -35.143002
 C    1.872000    3.705000  -31.841000
 C    3.330000    3.526000  -31.886999
 C    3.579000    2.354000  -32.569000
 C    4.929000    1.645000  -32.738998
 C    4.214000    0.542000  -33.325001
 C    5.549000   -0.411000  -33.453999
 C    4.256000   -0.644000  -34.403999
 C    5.254000   -2.102000  -34.172001
 C   -0.239000   -3.542000  -34.993999
 C    1.721000   -4.257000  -34.580002
 C    3.669000   -3.751000  -33.728001
 C    3.524000    4.088000  -30.542999
 C    5.071000    2.267000  -31.378000
 C    5.110000    0.047000  -32.036999
 C    4.624000   -1.898000  -32.851002
 C    0.374000   -4.473000  -34.021999
 C    2.441000   -4.380000  -33.303001
 C    4.294000   -3.281000  -32.525002
 C    2.710000    4.701000  -29.589001
 C    4.630000    3.129000  -30.395000
 C    5.661000    0.926000  -31.101999
 C    5.493000   -1.399000  -31.808001
 C   -0.284000   -4.774000  -32.787998
 C    1.898000   -4.569000  -32.013000
 C    3.814000   -3.442000  -31.207001
 C    2.853000    4.606000  -28.152000
 C    4.539000    2.957000  -28.968000
 C    5.314000    0.755000  -29.721001
 C    5.057000   -1.534000  -30.452000
 C    0.551000   -4.867000  -31.590000
 C    2.677000   -4.219000  -30.844999
 C    4.437000   -2.764000  -30.117001
 C    2.002000    5.042000  -27.112000
 C    3.969000    3.726000  -27.938000
 C    5.186000    1.708000  -28.695999
 C    5.378000   -0.636000  -29.410999
 C   -0.033000   -4.928000  -30.291000
 C    2.163000   -4.412000  -29.538000
 C    4.028000   -3.083000  -28.799999
 C    2.368000    4.868000  -25.737000
 C    4.186000    3.405000  -26.563000
 C    5.198000    1.291000  -27.337000
 C    5.150000   -1.050000  -28.073999
 C    0.851000   -4.823000  -29.143999
 C    2.968000   -3.955000  -28.431999
 C    4.595000   -2.309000  -27.733000
 C    1.513000    5.209000  -24.646999
 C    3.543000    4.091000  -25.490999
 C    4.908000    2.208000  -26.283001
 C    5.305000   -0.091000  -27.025000
 C    0.286000   -4.906000  -27.840000
 C    2.459000   -4.214000  -27.131001
 C    4.221000   -2.735000  -26.429001
 C    1.987000    5.034000  -23.309000
 C    3.889000    3.718000  -24.157000
 C    5.044000    1.702000  -24.957001
 C    5.175000   -0.621000  -25.711000
 C    1.190000   -4.724000  -26.722000
 C    3.241000   -3.688000  -26.034000
 C    4.721000   -1.920000  -25.347000
 C    3.212000    4.342000  -23.058001
 C    4.694000    2.575000  -23.872000
 C    5.252000    0.331000  -24.634001
 C    0.619000   -4.854000  -25.424000
 C    2.741000   -4.008000  -24.740000
 C    4.386000   -2.408000  -24.052000
 C   -0.750000   -4.945000  -25.014000
 C    1.645000    5.158000  -20.875999
 C    3.620000    3.973000  -21.739000
 C    4.897000    2.049000  -22.561001
 C    5.182000   -0.245000  -23.330999
 C    1.516000   -4.607000  -24.311001
 C    3.481000   -3.431000  -23.634001
 C    4.822000   -1.573000  -22.951000
 C    2.913000    4.546000  -20.628000
 C    4.499000    2.883000  -21.457001
 C    5.197000    0.692000  -22.231001
 C    0.944000   -4.785000  -23.018000
 C    3.000000   -3.799000  -22.344000
 C    4.527000   -2.097000  -21.658001
 C   -0.411000   -4.969000  -22.596001
 C    3.354000    4.199000  -19.313999
 C    4.747000    2.364000  -20.149000
 C    5.176000    0.103000  -20.931000
 C    1.822000   -4.480000  -21.900000
 C    3.695000   -3.180000  -21.226999
 C    4.905000   -1.248000  -20.544001
 C   -1.003000   -4.954000  -21.297001
 C    2.614000    4.725000  -18.200001
 C    4.302000    3.165000  -19.035999
 C    5.134000    1.027000  -19.819000
 C    1.259000   -4.701000  -20.608999
 C    3.240000   -3.585000  -19.938000
 C    4.649000   -1.793000  -19.250000
 C   -0.081000   -4.976000  -20.176001
 C    3.079000    4.407000  -16.886999
 C    4.585000    2.664000  -17.729000
 C    5.155000    0.438000  -18.518000
 C    2.110000   -4.343000  -19.483999
 C    3.890000   -2.929000  -18.812000
 C    4.971000   -0.928000  -18.128000
 C   -0.676000   -5.002000  -18.879000
 C    2.306000    4.886000  -15.775000
 C    4.091000    3.435000  -16.615000
 C    5.057000    1.354000  -17.400999
 C    1.561000   -4.604000  -18.193001
 C    3.464000   -3.365000  -17.523001
 C    4.754000   -1.490000  -16.834000
 C    0.243000   -4.965000  -17.754000
 C    2.791000    4.600000  -14.461000
 C    4.407000    2.955000  -15.307000
 C    5.117000    0.768000  -16.100000
 C    2.385000   -4.195000  -17.063000
 C    4.069000   -2.672000  -16.393999
 C    5.022000   -0.608000  -15.711000
 C   -0.351000   -5.032000  -16.457001
 C    1.986000    5.030000  -13.353000
 C    3.864000    3.696000  -14.197000
 C    4.963000    1.677000  -14.984000
 C    1.854000   -4.492000  -15.773000
 C    3.672000   -3.137000  -15.104000
 C    4.842000   -1.184000  -14.418000
 C    0.563000   -4.938000  -15.330000
 C    2.487000    4.779000  -12.038000
 C    4.212000    3.238000  -12.889000
 C    5.063000    1.096000  -13.684000
 C    2.649000   -4.033000  -14.642000
 C    4.234000   -2.406000  -13.976000
 C    5.057000   -0.283000  -13.298000
 C   -0.028000   -5.044000  -14.034000
 C    1.653000    5.158000  -10.937000
 C    3.620000    3.949000  -11.787000
 C    4.851000    2.000000  -12.576000
 C    2.137000   -4.366000  -13.352000
 C    3.867000   -2.900000  -12.689000
 C    4.915000   -0.874000  -12.007000
 C    0.878000   -4.892000  -12.905000
 C   -1.084000   -5.049000  -11.213000
 C    2.167000    4.945000   -9.620000
 C    3.998000    3.519000  -10.478000
 C    4.993000    1.426000  -11.276000
 C    2.904000   -3.857000  -12.223000
 C    4.387000   -2.130000  -11.566000
 C    5.078000    0.051000  -10.900000
 C    0.294000   -5.038000  -11.611000
 C    1.306000    5.268000   -8.524000
 C    3.356000    4.197000   -9.387000
 C    4.723000    2.329000  -10.182000
 C    2.412000   -4.226000  -10.936000
 C    4.050000   -2.652000  -10.282000
 C    4.978000   -0.555000   -9.611000
 C    1.190000   -4.829000  -10.485000
 C   -0.759000   -5.112000   -8.791000
 C    1.827000    5.097000   -7.205000
 C    3.761000    3.802000   -8.075000
 C    4.908000    1.766000   -8.882000
 C    3.152000   -3.665000   -9.812000
 C    4.531000   -1.839000   -9.174000
 C    5.091000    0.400000   -8.526000
 C    0.613000   -5.015000   -9.192000
 C    3.070000    4.439000   -6.995000
 C    4.578000    2.669000   -7.810000
 C    2.681000   -4.069000   -8.528000
 C    4.228000   -2.389000   -7.893000
 C    5.036000   -0.213000   -7.237000
 C    1.503000   -4.747000   -8.073000
 C   -0.426000   -5.156000   -6.379000
 C    1.470000    5.231000   -4.787000
 C    3.497000    4.089000   -5.677000
 C    4.807000    2.133000   -6.505000
 C    3.397000   -3.452000   -7.419000
 C    4.676000   -1.522000   -6.814000
 C    5.103000    0.782000   -6.191000
 C    0.934000   -4.972000   -6.782000
 C   -1.032000   -5.141000   -5.085000
 C    2.763000    4.668000   -4.600000
 C    4.411000    3.026000   -5.455000
 C    2.950000   -3.890000   -6.135000
 C    4.410000   -2.096000   -5.532000
 C    5.103000    0.178000   -4.893000
 C    1.822000   -4.640000   -5.678000
 C   -0.085000   -5.179000   -3.987000
 C    1.105000    5.338000   -2.363000
 C    3.206000    4.367000   -3.276000
 C    4.684000    2.537000   -4.139000
 C    3.650000   -3.203000   -5.057000
 C    4.843000   -1.158000   -4.513000
 C    5.126000    1.216000   -3.897000
 C    1.257000   -4.906000   -4.391000
 C   -0.726000   -5.212000   -2.709000
 C    2.437000    4.869000   -2.189000
 C    4.214000    3.384000   -3.092000
 C    3.225000   -3.665000   -3.767000
 C    4.624000   -1.738000   -3.215000
 C    5.203000    0.660000   -2.579000
 C    2.150000   -4.489000   -3.317000
 C    0.250000   -5.180000   -1.628000
 C    2.895000    4.613000   -0.862000
 C    4.527000    2.951000   -1.766000
 C    3.926000   -2.882000   -2.758000
 C    5.100000   -0.718000   -2.311000
 C    5.122000    1.680000   -1.584000
 C    1.559000   -4.816000   -2.049000
 C   -0.466000   -5.296000   -0.395000
 C    2.104000    5.040000    0.238000
 C    3.981000    3.711000   -0.696000
 C    3.497000   -3.352000   -1.437000
 C    5.003000   -1.226000   -0.965000
 C    5.280000    1.182000   -0.252000
 C    2.457000   -4.260000   -1.008000
 C    0.514000   -5.227000    0.699000
 C    2.582000    4.814000    1.562000
 C    4.325000    3.314000    0.631000
 C    4.405000   -2.474000   -0.724000
 C    5.456000   -0.209000   -0.082000
 C    5.049000    2.107000    0.795000
 C    1.741000   -4.879000    0.085000
 C   -0.196000   -5.383000    1.919000
 C    1.771000    5.180000    2.668000
 C    3.733000    4.000000    1.722000
