60
C60-Ih                                                                          
 C    2.166500    0.590600    2.587400
 C    3.037800    0.176600    1.591800
 C    1.278600   -0.309800    3.167900
 C    3.011800   -1.143400    1.165400
 C    3.103400   -1.433500   -0.193000
 C    3.150300    1.210600    0.668200
 C    3.242800    0.914900   -0.685900
 C    3.219200   -0.402300   -1.120700
 C   -0.439300    1.352700    3.127100
 C    0.436300    2.261800    2.554200
 C   -0.029600    0.063300    3.437900
 C    1.744200    1.879000    2.283000
 C    2.351900    2.267600    1.099000
 C   -0.263300    3.026800    1.632600
 C    0.337400    3.405400    0.437300
 C    1.651600    3.027800    0.170700
 C   -2.090300   -0.822500    2.595500
 C   -2.511100    0.466400    2.285400
 C   -0.844900   -1.025200    3.173800
 C   -1.687400    1.553300    2.551200
 C   -1.584300    2.585800    1.631900
 C   -3.231400    0.406100    1.100700
 C   -3.122700    1.441000    0.174600
 C   -2.294700    2.529100    0.439900
 C   -0.490800   -2.913300    1.736500
 C   -1.743000   -2.712400    1.163700
 C   -0.039300   -2.068400    2.745300
 C   -2.548600   -1.665000    1.594200
 C   -3.260200   -0.914100    0.670100
 C   -1.654300   -3.006100   -0.189700
 C   -2.354200   -2.243900   -1.117000
 C   -3.164300   -1.194900   -0.687800
 C    2.136400   -2.055300    1.735800
 C    1.689500   -2.900900    0.729300
 C    1.278500   -1.636600    2.743500
 C    0.367800   -3.332700    0.730200
 C   -0.344000   -3.390400   -0.459400
 C    2.288900   -2.525000   -0.464000
 C    1.579000   -2.571800   -1.658000
 C    0.256000   -3.005400   -1.653100
 C   -2.182800   -0.578300   -2.597900
 C   -1.748000   -1.869400   -2.308300
 C   -0.438500   -2.246900   -2.584500
 C   -1.281500    0.318900   -3.167100
 C   -2.152600    2.054500   -1.737800
 C   -3.048500    1.153500   -1.181100
 C   -3.065600   -0.162900   -1.610700
 C   -1.266100    1.640700   -2.727100
 C    0.503900    2.936100   -1.741800
 C   -0.378800    3.356100   -0.751300
 C   -1.694300    2.918600   -0.749100
 C    0.052100    2.073000   -2.735500
 C    2.097600    0.834000   -2.605100
 C    2.551700    1.692300   -1.610700
 C    1.758900    2.745200   -1.182400
 C    0.842000    1.020600   -3.178600
 C    0.446100   -1.349500   -3.166100
 C    1.698300   -1.548500   -2.590800
 C    2.518400   -0.462300   -2.317100
 C    0.021800   -0.064500   -3.458500
