9
New structure
Pt    0.000000    0.000000    0.000000
Pt    0.000000    3.924200    3.924200
Pt    3.924200    0.000000    3.924200
Pt    3.924200    3.924200    0.000000
Pt    3.924200    1.962100    1.962100
Pt    1.962100    0.000000    1.962100
Pt    1.962100    3.924200    1.962100
Pt    1.962100    1.962100    0.000000
Pt    1.962100    1.962100    3.924200
